Input file: /home/trh/data/mirror/base/curvedspacedmir5elec00.dat
Output file: /home/trh/data/mirror/base/curvedspacedmir5elec01.dat
Column file: /home/trh/data/mirror/base/mir_curved5_col00.dat
Initial simplex: None
z_min bound: -10
z_max bound: 150
r_min bound: 3
Voltages: -500,1000,10000,100000,200000
Flags: f,v1,v2,v3,f
Curved mirror: True
End r indices: 11,21,31,31
Automate curvature where present: True
Simplex scale: 4
Source position: 90
Image position: 95

Comments:
Initial simplex: /home/trh/data/mirror/base/initial_simplex_for_curvedspacedmir5elec01.npy
/home/trh/data/std_obj/trees/c/initial_simplex_for_obj34.npy
