Input file: /home/trh/data/mirror/practice/mirroring_tests/curved_test_mir02.dat
Output file: /home/trh/data/mirror/practice/mirroring_tests/curved_test_mir03.dat
Column file: /home/trh/data/mirror/practice/mirroring_tests/curved_mir_coltest00.dat
Initial simplex: None
z_min bound: -10
z_max bound: 150
Voltages: -500,100000,200000
Flags: v1,v2,f
Curved mirror: True
End r indices: 1,21,31
Automate curvature where present: True
Simplex scale: 5



Comments/Notes:
/home/trh/data/std_obj/trees/c/initial_simplex_for_obj34.npy
