Input file: /home/trh/data/std_obj/trees/c/obj36.dat
Output file: /home/trh/data/std_obj/trees/c/obj37.dat
Column file: /home/trh/data/std_obj/trees/c/opt_col37.dat
Initial simplex: /home/trh/data/std_obj/trees/c/initial_simplex_for_obj37.npy
z_max: -2.5
r_min: 4
Simplex_scale: 10

Comments:
/home/trh/data/std_obj/trees/c/initial_simplex_for_obj34.npy
