Input file: /home/trh/data/sc_shielded_obj/SCobj00.dat
Output file: /home/trh/data/sc_shielded_obj/SCobj01.dat
Column file: /home/trh/data/sc_shielded_obj/opt_SCcol01.dat
Initial simplex: None
z_max: -2.5
r_min: 4
Simplex_scale: 10

Comments:
/home/trh/data/std_obj/trees/c/initial_simplex_for_obj34.npy
